
**** 07/25/20 16:25:51 ****** PSpice 16.5.0 (April 2011) ****** ID# 0 ********

 ** Profile: "SCHEMATIC1-time"  [ D:\scoala\an II\sem 2\computer aided design\project\project\project-pspicefiles\schematic1\time.sim


 ****     CIRCUIT DESCRIPTION


******************************************************************************




** Creating circuit file "time.cir" 
** WARNING: THIS AUTOMATICALLY GENERATED FILE MAY BE OVERWRITTEN BY SUBSEQUENT SIMULATIONS

*Libraries: 
* Profile Libraries :
* Local Libraries :
* From [PSPICE NETLIST] section of D:\scoala\programe\Cadence\SPB_16.5\tools\PSpice\PSpice.ini file:
.lib "D:\scoala\programe\Cadence\SPB_16.5\tools\pspice\library\nom.lib" 
.lib "D:\scoala\programe\Cadence\SPB_16.5\tools\pspice\library\nomd.lib" 

*Analysis directives: 
.TRAN  0 1ms 0 SKIPBP 
.PROBE V(alias(*)) I(alias(*)) W(alias(*)) D(alias(*)) NOISE(alias(*)) 
.INC "..\SCHEMATIC1.net" 



**** INCLUDING SCHEMATIC1.net ****
* source PROJECT
R_R22         N41941 OUTD R_R22 160 TC=0,0 
.model        R_R22 RES R=1 DEV=1% TC1=0 TC2=0
R_R23         N42139 N41627 R_R23 3.82k TC=0,0 
.model        R_R23 RES R=1 DEV=1% TC1=0 TC2=0
X_POT31         N41633 N41615 N41627 POT PARAMS: SET={setF} VALUE=3.4k
D_D21         N42199 N42139 BZ-056 
Q_Q4         -15V N41795 OUTT MPS2907
D_D22         N42199 0 BZ-056 
R_R11         OUTT N41601 R_R11 4k TC=0,0 
.model        R_R11 RES R=1 DEV=1% TC1=0 TC2=0
C_C31         N41567 OUTT C_C31 30n  TC=0,0 
.model        C_C31 CAP C=1 DEV=20% TC1=0 TC2=0 VC1=0 VC2=0
V_V2         -15V 0 -15
X_POT21         N41941 N41941 0 POT PARAMS: SET={setD} VALUE=800
R_R31         N41615 N41567 R_R31 2.5k TC=0,0 
.model        R_R31 RES R=1 DEV=1% TC1=0 TC2=0
R_R32         0 N41633 R_R32 4k TC=0,0 
.model        R_R32 RES R=1 DEV=1% TC1=0 TC2=0
R_Rout         0 OUTT R_Rout 15 TC=0,0 
.model        R_Rout RES R=1 DEV=1% TC1=0 TC2=0
Q_Q5         15V N41799 OUTT MPS2716
R_R12         N41627 N41601 R_R12 15k TC=0,0 
.model        R_R12 RES R=1 DEV=5% TC1=0 TC2=0
R_R13         0 N41585 R_R13 3k TC=0,0 
.model        R_R13 RES R=1 DEV=1% TC1=0 TC2=0
D_D41         N41799 N41775 D1N3064 
R_R21         OUTD N41627 R_R21 1k TC=0,0 
.model        R_R21 RES R=1 DEV=1% TC1=0 TC2=0
R_R42         -15V N41795 R_R42 0.5k TC=0,0 
.model        R_R42 RES R=1 DEV=1% TC1=0 TC2=0
D_D42         N41775 N41795 D1N3064 
X_U1A         N41601 N41585 15V -15V N41627 LF412
R_R41         N41799 15V R_R41 0.5k TC=0,0 
.model        R_R41 RES R=1 DEV=1% TC1=0 TC2=0
V_V1         15V 0 15
X_U2B         N41643 N41567 15V -15V N41775 LF412
R_R33         0 N41643 R_R33 10k TC=0,0 
.model        R_R33 RES R=1 DEV=1% TC1=0 TC2=0
.PARAM  setd=0.5 setf=0.5

**** RESUMING time.cir ****
.END

**** 07/25/20 16:25:51 ****** PSpice 16.5.0 (April 2011) ****** ID# 0 ********

 ** Profile: "SCHEMATIC1-time"  [ D:\scoala\an II\sem 2\computer aided design\project\project\project-pspicefiles\schematic1\time.sim


 ****     Diode MODEL PARAMETERS


******************************************************************************




               BZ-056          D1N3064         
          IS   10.000000E-15  168.100000E-21 
         ISR    7.539000E-06   24.540000E-09 
          BV    5.009         100            
         IBV     .04311       100.000000E-06 
          RS    1.000000E-03     .1          
          TT  144.300000E-09    5.771000E-09 
         CJO    1.000000E-12    2.000000E-12 
          VJ     .75             .75         
           M     .3333           .3333       


               X_U1A.x_lf412.dx 
          IS  800.000000E-18 
          RS    1.000000E-03 


               X_U1A.x_lf412.dy 
          IS  800.000000E-18 
          RS    1.000000E-03 
         CJO   10.000000E-12 


               X_U2B.x_lf412.dx 
          IS  800.000000E-18 
          RS    1.000000E-03 


               X_U2B.x_lf412.dy 
          IS  800.000000E-18 
          RS    1.000000E-03 
         CJO   10.000000E-12 


**** 07/25/20 16:25:51 ****** PSpice 16.5.0 (April 2011) ****** ID# 0 ********

 ** Profile: "SCHEMATIC1-time"  [ D:\scoala\an II\sem 2\computer aided design\project\project\project-pspicefiles\schematic1\time.sim


 ****     BJT MODEL PARAMETERS


******************************************************************************




               MPS2907         MPS2716         
               PNP             NPN             
       LEVEL    1               1            
          IS    4.661000E-15    6.734000E-15 
          BF  402.8           383.9          
          NF    1               1            
         VAF  100              74.03         
         IKF     .1132           .06532      
         ISE   14.550000E-15    6.734000E-15 
          NE    1.352           1.247        
          BR    3.07             .7482       
          NR    1               1            
         ISS    0               0            
          RB   10              10            
          RE    0               0            
          RC     .6             1            
         CJE   26.220000E-12    4.493000E-12 
         VJE     .75             .75         
         MJE     .3809           .2593       
         CJC   21.350000E-12    3.118000E-12 
         VJC     .75             .75         
         MJC     .5234           .3086       
        XCJC    1               1            
         CJS    0               0            
         VJS     .75             .75         
          TF  417.600000E-12  301.500000E-12 
         XTF   20               2            
         VTF   12               4            
         ITF     .8              .4          
          TR   32.630000E-09  240.300000E-09 
         XTB    1.5             1.5          
          KF    0               0            
          AF    1               1            
          CN    2.2             2.42         
           D     .52             .87         


**** 07/25/20 16:25:51 ****** PSpice 16.5.0 (April 2011) ****** ID# 0 ********

 ** Profile: "SCHEMATIC1-time"  [ D:\scoala\an II\sem 2\computer aided design\project\project\project-pspicefiles\schematic1\time.sim


 ****     Junction FET MODEL PARAMETERS


******************************************************************************




               X_U1A.x_lf412.jx 
               NJF             
         VTO   -1            
        BETA  743.300000E-06 
          IS   12.500000E-12 


               X_U2B.x_lf412.jx 
               NJF             
         VTO   -1            
        BETA  743.300000E-06 
          IS   12.500000E-12 


**** 07/25/20 16:25:51 ****** PSpice 16.5.0 (April 2011) ****** ID# 0 ********

 ** Profile: "SCHEMATIC1-time"  [ D:\scoala\an II\sem 2\computer aided design\project\project\project-pspicefiles\schematic1\time.sim


 ****     Resistor MODEL PARAMETERS


******************************************************************************




               R_R22           R_R23           R_R11           R_R31           
           R    1               1               1               1            


               R_R32           R_Rout          R_R12           R_R13           
           R    1               1               1               1            


               R_R21           R_R42           R_R41           R_R33           
           R    1               1               1               1            


**** 07/25/20 16:25:51 ****** PSpice 16.5.0 (April 2011) ****** ID# 0 ********

 ** Profile: "SCHEMATIC1-time"  [ D:\scoala\an II\sem 2\computer aided design\project\project\project-pspicefiles\schematic1\time.sim


 ****     Capacitor MODEL PARAMETERS


******************************************************************************




               C_C31           
           C    1            



          JOB CONCLUDED

**** 07/25/20 16:25:51 ****** PSpice 16.5.0 (April 2011) ****** ID# 0 ********

 ** Profile: "SCHEMATIC1-time"  [ D:\scoala\an II\sem 2\computer aided design\project\project\project-pspicefiles\schematic1\time.sim


 ****     JOB STATISTICS SUMMARY


******************************************************************************



  Total job time (using Solver 1)   =         .16
